***************
V1 1  0  10 0 0 0
r1  1   2   5
*D1   3   2   1
r2    3   4  5
D3    0   4   1
r3   2   3   10
D2   3   0    1
*************
dV   1m
dI   1m
dT    1m
.tran  30m
