*****TEST*****
******
V1  1  0  10  0  0  0
r1   1   0  5
r2   1   2  2
r3   2    0   3
r4     2   3   5
D1   0    3    1
*************************
*I1   1   0  10  0  0  0
*r1   1   2    5
*D1   0   2   1
******************************
*C1   2  0  5m
*I1   1  0   5  0  0  0
*r1   1   2   2
*G2   0  4   3 0 1
*r5  2  0  2
*L6   3   0  0.5
*I2   2   0   1 0  5  0
*r2   3   0   1
*r3   1  0   1
*r4   1   0   1
************************
*V1  1  0  80  0  0  0
*R1   1   2   1
*l1   2    3    1
*E1   3   0   1   2   3
*r2    2    4   2
*r3    4   0  2
*I1    4   0   10  0  0  0
************
*V1 1  0  0  5    1   0
*r1   1   2   1
*c1    2   0   1
*l1   2    3   1
*r2   3   0   2
*r3     3   4   3
*c2   4   0    4
************
*I1 1  0  5  0  0  0
*r1  1  0   -2t+3
***************
dV   1m
dI   10m
dT    10m
.tran  1
