*****TEST*****
r1   1   2  5
I1   1  0  10  0  0  0
r2   2   0   10
r3   2   3   6
r4   3   0   4
*r2   1    2   5
*c3   0   4    531
*r1    1   0  5
*C2   3   4   8m
*L1   2   3   80m
dV   1m
dI   1m
dT    1m
.tran  5m
