*****TEST*****
*C1   0   2  10m
v1   1  0  10  0  0  0
r1   1   2   1
*r3   2   3   1
*r4   3   0   1
r2   2    0   2
*c3   0   4    531
*r1    1   0  5
*C2   3   4   8m
*L1   2   3   80m
dV   10u
dI   1m
dT    1m
.tran  5m
