*TEST
**
r1 0 1 3
r2 0 1 6
*
dV   100u
dI   10m
dT    1m
.tran  0m
