*****TEST*****
************************
V1 1 0 7  0  0  0
r1  0  1  10k
*************
dV   100u
dI   10m
dT    1m
.tran  5
