*****TEST*****
V1 1  0  0  5    1   0
r1   1   2   1
c1    2   0   1
l1   2    3   1
r2   3   0   2
r3     3   4   3
c2   4   0    4
************
dV   100u
dI   100m
dT    10m
.tran  0.3
