****TEST****
V1 7 0 7  0  0  0
r1  7  8  10
L1   8  9  3m
L2  2   0   1m
r2   2  8  20
r3   2  3  6
c1    9  3  6m
r5     4  3  35
r4     9   10  15
r6     4  10  35
r7     8  9  35
*r8     8  9  35
************
dV   100u
dI   10m
dT    1m
.tran  0
