***************
V1 0  0  10 0 0 0
I2  2  0   5  0  0  0
r1  2   0   1
*************
dV   1m
dI   10u
dT    1m
.tran  10m
