*****TEST*****
*C1   0   2  10m
I1   1  0  1  0  0  0
r1   1   0   1
G1   1   0  1  0  2
*L2   0   2   10m
*r1   1   2   5
*r3   2   3   6
*r4   3   0   4
*r2   2    0   2
*c3   0   4    531
*r1    1   0  5
*C2   3   4   8m
*L1   2   3   80m
dV   1m
dI   1m
dT    10u
.tran  20m
