*****TEST*****
*C1   0   2  10m
I1   2  1   1  1  1000  0
r1   2   3   1
G2   0  4   3 0 1 
r5  2  4  1.5
L6   3   0  0.5
*I2   2   0   1 0  5  0
r2   3   0   1
r3   1  0   1
r4   1   0   1
*r2   2    0   2
*c3   0   4    531
*r1    1   0  5
*C2   3   4   8m
*L1   2   3   80m
dV   1m
dI   1m
dT    100u
.tran  4m
