***************
V1 1  0  10 0 0 0 
r1  2   1  1
r2  2  0   1
***********
dV   1m
dI   1m
dT    1m
.tran  10m
