***************
V1 1  0  10 0 0 0
r1  1   2   1
r3  2   3   1
r10  2   0   1
r4  3   4   1
r5  3   0   1
r6  4   5   1
r7  4   0   1
r8  5   6   1
r9  5   0   1
r11  6    0  1
r12 1  7  1
r13  7   8   1
r14  8   2   1
r15  8   9   1
r16  9   3   1
r21  9   10   1
r17  10   4   1
r18  10  11    1
r19  11   5   1
r20  11   12   1
r22  12   6   1
********
r32 13  7  1
r23  13   14  1
r24  14   8   1
r25  14   15   1
r26  15   9   1
r27  15   16   1
r28  16   10   1
r29  16  17    1
r30  17   11   1
r31  17   18   1
r33  18   12   1
*************
r34 13  19  1
r35  19   20  1
r36  20   14   1
r37  20   21   1
r38  21   15   1
r39  21   22   1
r40  22   16   1
r41  22  23    1
r42  23   17   1
r43  24   23   1
r44  24   18   1
****************
r45 25  19  1
r46  25   26  1
r47  26   20   1
r48  26  27   1
r49  27   21   1
r50  27   28   1
r51  28   22   1
r52  28  29    1
r53  29   23   1
r54  29   30   1
r55  30   24   1
***********
dV   1m
dI   1m
dT    1m
.tran  0m
