*****TEST*****
*V1  1  0  10  0  0  0
*r1   1   0  5
*r2   1   2  2
*r3   2    0   3
*r4     2   3   5
*D1   0    3    1
C1   2  0  5m
I1   1  0   5  0  0  0
r1   1   2   2
*G2   0  4   3 0 1
r5  2  0  2
*L6   3   0  0.5
*I2   2   0   1 0  5  0
*r2   3   0   1
*r3   1  0   1
*r4   1   0   1
dV   1m
dI   1m
dT    1m
.tran  10m
