*****TEST*****
************************
V1 1 0 0  10  1  0
r1  0  1  10k
*************
dV   100u
dI   10m
dT    1u
.tran  5m
