*****TEST*****
************************
V1 1 0 7  0  0  0
r1  1  2  10
L1   6  0  3m
L2  2   3   1m
r2   2  3  20
c1    3  5  6m
r3   5  6  6
r4     3   4  15
r5     4  5  35
*************
dV   100u
dI   10m
dT    1m
.tran  0m
