*****TEST*****
******
*V1  1  0  10  0  0  0
*r1   1   0  5
*r2   1   2  2
*r3   2    0   3
*r4   1   7  5
*r5   7   8  2
*r6   2    8   3
**************************
*I1   1   0  10  0  0  0
*r1   1   2    5
*D1   0   2   2
******************************
*C1   2  0  5m
*I1   1  0   5  0  0  0
*r1   1   2   2
*G2   0  4   3 0 1
*r5  2  0  2
*L6   3   0  0.5
*I2   2   0   1 0  5  0
*r2   3   0   1
*r3   1  0   1
*r4   1   0   1
************************
*V1  1  0  80  0  0  0
*R1   1   2   1
*l1   2    3    1
*E1   3   0   1   2   3
*r2    2    4   2
*r3    4   0  2
*I1    4   0   10  0  0  0
************
*V1 1  0  0  5    1   0
*r1   1   2   1
*c1    2   0   1
*l1   2    3   1
*r2   3   0   2
*r3     3   4   3
*c2   4   0    4
************
*I1 1  0  5  0  0  0
*r1  1  0   -2t+3
***************
*I1  1  0   10  0  0  0
*c1   1   0   1m
***************
i1  1  0  0  1  100  0
L1   2  3    1m
r1   1  2   10
c1   2  0   2m
r2   1   2   20
*E1   3   0  1  2   2
**************
dV   1u
dI   10m
dT    10m
.tran  1
